! Users should add all user specific namelist changes below in the form of 
! namelist_var = new_namelist_value 

cldfrc_dp1 = 0.07416044209 
clubb_c1 = 3.540799366
clubb_c8 = 5.834096579
clubb_gamma_coef = 0.3661207775
zmconv_ke = 5.0e-6
so4_sz_thresh_icenuc = 5.0e-8
clubb_c14 = 1.06
