! Users should add all user specific namelist changes below in the form of 
! namelist_var = new_namelist_value 

cldfrc_dp1 = 0.05401296549 
clubb_c1 = 4.417696128
clubb_c8 = 4.331483243
clubb_gamma_coef = 0.1226929924
zmconv_ke = 5.0e-6
so4_sz_thresh_icenuc = 5.0e-8
clubb_c14 = 1.06
