! Users should add all user specific namelist changes below in the form of 
! namelist_var = new_namelist_value 

cldfrc_dp1 = 0.07547429739 
clubb_c1 = 2.18946846
clubb_c8 = 5.836103491
clubb_gamma_coef = 0.417991425
zmconv_ke = 5.0e-6
so4_sz_thresh_icenuc = 5.0e-8
clubb_c14 = 1.06
