! Users should add all user specific namelist changes below in the form of 
! namelist_var = new_namelist_value 

cldfrc_dp1 = 0.03690149965 
clubb_c1 = 4.790031817
clubb_c8 = 7.088977157
clubb_gamma_coef = 0.157197417
zmconv_ke = 5.0e-6
so4_sz_thresh_icenuc = 5.0e-8
clubb_c14 = 1.06
