! Users should add all user specific namelist changes below in the form of 
! namelist_var = new_namelist_value 

cldfrc_dp1 = 0.05226467531 
clubb_c1 = 2.721379076
clubb_c8 = 3.726606459
clubb_gamma_coef = 0.1328228281
zmconv_ke = 5.0e-6
so4_sz_thresh_icenuc = 5.0e-8
clubb_c14 = 1.06
