! Users should add all user specific namelist changes below in the form of 
! namelist_var = new_namelist_value 

cldfrc_dp1 = 0.0277333167 
clubb_c1 = 4.419726228
clubb_c8 = 2.739610218
clubb_gamma_coef = 0.1034228444
zmconv_ke = 5.0e-6
so4_sz_thresh_icenuc = 5.0e-8
clubb_c14 = 1.06
