! Users should add all user specific namelist changes below in the form of 
! namelist_var = new_namelist_value 

cldfrc_dp1 = 0.09280917607 
clubb_c1 = 2.69388024
clubb_c8 = 3.880864973
clubb_gamma_coef = 0.4095579984
zmconv_ke = 5.0e-6
so4_sz_thresh_icenuc = 5.0e-8
clubb_c14 = 1.06
