! Users should add all user specific namelist changes below in the form of 
! namelist_var = new_namelist_value 

cldfrc_dp1 = 0.07603317956 
clubb_c1 = 4.53435913
clubb_c8 = 3.907716258
clubb_gamma_coef = 0.4086184925
zmconv_ke = 5.0e-6
so4_sz_thresh_icenuc = 5.0e-8
clubb_c14 = 1.06
