! Users should add all user specific namelist changes below in the form of 
! namelist_var = new_namelist_value 

cldfrc_dp1 = 0.07886806926 
clubb_c1 = 1.404974643
clubb_c8 = 3.367203375
clubb_gamma_coef = 0.1000671114
zmconv_ke = 5.0e-6
so4_sz_thresh_icenuc = 5.0e-8
clubb_c14 = 1.06
