! Users should add all user specific namelist changes below in the form of 
! namelist_var = new_namelist_value 

cldfrc_dp1 = 0.07430480445 
clubb_c1 = 4.347984408
clubb_c8 = 7.433548887
clubb_gamma_coef = 0.4190675508
zmconv_ke = 5.0e-6
so4_sz_thresh_icenuc = 5.0e-8
clubb_c14 = 1.06
