! Users should add all user specific namelist changes below in the form of 
! namelist_var = new_namelist_value 

cldfrc_dp1 = 0.04258837918 
clubb_c1 = 1.439701291
clubb_c8 = 4.673484877
clubb_gamma_coef = 0.4797458966
zmconv_ke = 5.0e-6
so4_sz_thresh_icenuc = 5.0e-8
clubb_c14 = 1.06
