! Users should add all user specific namelist changes below in the form of 
! namelist_var = new_namelist_value 

cldfrc_dp1 = 0.02932071593 
clubb_c1 = 1.429388481
clubb_c8 = 5.181545581
clubb_gamma_coef = 0.4188841872
zmconv_ke = 5.0e-6
so4_sz_thresh_icenuc = 5.0e-8
clubb_c14 = 1.06
