! Users should add all user specific namelist changes below in the form of 
! namelist_var = new_namelist_value 

cldfrc_dp1 = 0.07837204637 
clubb_c1 = 2.345194127
clubb_c8 = 4.204489964
clubb_gamma_coef = 0.438905845
zmconv_ke = 5.0e-6
so4_sz_thresh_icenuc = 5.0e-8
clubb_c14 = 1.06
