! Users should add all user specific namelist changes below in the form of 
! namelist_var = new_namelist_value 

cldfrc_dp1 = 0.05205882076 
clubb_c1 = 1.24814498
clubb_c8 = 7.471949305
clubb_gamma_coef = 0.107605687
zmconv_ke = 5.0e-6
so4_sz_thresh_icenuc = 5.0e-8
clubb_c14 = 1.06
