! Users should add all user specific namelist changes below in the form of 
! namelist_var = new_namelist_value 

cldfrc_dp1 = 0.07858832223 
clubb_c1 = 3.445215112
clubb_c8 = 6.56214882
clubb_gamma_coef = 0.3816047091
zmconv_ke = 5.0e-6
so4_sz_thresh_icenuc = 5.0e-8
clubb_c14 = 1.06
