! Users should add all user specific namelist changes below in the form of 
! namelist_var = new_namelist_value 

cldfrc_dp1 = 0.08001570117 
clubb_c1 = 3.46861822
clubb_c8 = 4.143609009
clubb_gamma_coef = 0.2572063956
zmconv_ke = 5.0e-6
so4_sz_thresh_icenuc = 5.0e-8
clubb_c14 = 1.06
