! Users should add all user specific namelist changes below in the form of 
! namelist_var = new_namelist_value 

cldfrc_dp1 = 0.05941159286 
clubb_c1 = 3.67419261
clubb_c8 = 4.14745526
clubb_gamma_coef = 0.2847753506
zmconv_ke = 5.0e-6
so4_sz_thresh_icenuc = 5.0e-8
clubb_c14 = 1.06
