! Users should add all user specific namelist changes below in the form of 
! namelist_var = new_namelist_value 

cldfrc_dp1 = 0.02732842883 
clubb_c1 = 2.449288098
clubb_c8 = 4.718991705
clubb_gamma_coef = 0.4009473687
zmconv_ke = 5.0e-6
so4_sz_thresh_icenuc = 5.0e-8
clubb_c14 = 1.06
