! Users should add all user specific namelist changes below in the form of 
! namelist_var = new_namelist_value 

cldfrc_dp1 = 0.07918613199 
clubb_c1 = 4.927472685
clubb_c8 = 6.690451711
clubb_gamma_coef = 0.4883171517
zmconv_ke = 5.0e-6
so4_sz_thresh_icenuc = 5.0e-8
clubb_c14 = 1.06
