! Users should add all user specific namelist changes below in the form of 
! namelist_var = new_namelist_value 

cldfrc_dp1 = 0.06531463316 
clubb_c1 = 1.349992579
clubb_c8 = 3.378168852
clubb_gamma_coef = 0.41936795
zmconv_ke = 5.0e-6
so4_sz_thresh_icenuc = 5.0e-8
clubb_c14 = 1.06
